
     RDKit          3D

 31 32  0  0  0  0  0  0  0  0999 V2000
  -20.7090   16.2090   -6.9550 C   0  0  0  0  0  0  0  0  0  0  0  0
  -20.5630   21.0710  -10.3390 O   0  0  0  0  0  0  0  0  0  0  0  0
  -21.2540   15.7200   -5.7310 C   0  0  0  0  0  0  0  0  0  0  0  0
  -22.0820   16.5480   -4.9640 C   0  0  0  0  0  0  0  0  0  0  0  0
  -22.6540   16.1750   -3.7790 O   0  0  0  0  0  0  0  0  0  0  0  0
  -22.3890   17.8600   -5.3790 C   0  0  0  0  0  0  0  0  0  0  0  0
  -21.8160   18.2720   -6.5950 C   0  0  0  0  0  0  0  0  0  0  0  0
  -21.0090   17.5010   -7.3710 C   0  0  0  0  0  0  0  0  0  0  0  0
  -20.4390   17.9340   -8.5930 C   0  0  0  0  0  0  0  0  0  0  0  0
  -20.7710   19.2380   -8.9680 C   0  0  0  0  0  0  0  0  0  0  0  0
  -21.6050   20.0590   -8.1740 C   0  0  0  0  0  0  0  0  0  0  0  0
  -22.1510   19.5770   -6.9580 C   0  0  0  0  0  0  0  0  0  0  0  0
  -20.3190   19.8570  -10.1560 C   0  0  1  0  0  0  0  0  0  0  0  0
  -19.6330   19.1000  -11.2050 C   0  0  2  0  0  0  0  0  0  0  0  0
  -19.5580   19.1920  -12.6820 C   0  0  0  0  0  0  0  0  0  0  0  0
  -18.2890   18.5180  -13.2060 C   0  0  1  0  0  0  0  0  0  0  0  0
  -23.0100   14.8120   -3.7020 C   0  0  1  0  0  0  0  0  0  0  0  0
  -20.1570   15.6680   -7.4720 H   0  0  0  0  0  0  0  0  0  0  0  0
  -21.0610   14.8570   -5.4450 H   0  0  0  0  0  0  0  0  0  0  0  0
  -22.9380   18.4200   -4.8790 H   0  0  0  0  0  0  0  0  0  0  0  0
  -19.8860   17.3910   -9.1070 H   0  0  0  0  0  0  0  0  0  0  0  0
  -21.7960   20.9260   -8.4530 H   0  0  0  0  0  0  0  0  0  0  0  0
  -22.7060   20.1040   -6.4290 H   0  0  0  0  0  0  0  0  0  0  0  0
  -19.9220   18.1870  -11.0500 H   0  0  0  0  0  0  0  0  0  0  0  0
  -17.8510   18.0590  -12.4850 H   0  0  0  0  0  0  0  0  0  0  0  0
  -23.6430   14.6070   -4.3930 H   0  0  0  0  0  0  0  0  0  0  0  0
  -22.2260   14.2700   -3.8150 H   0  0  0  0  0  0  0  0  0  0  0  0
  -23.4020   14.6320   -2.8440 H   0  0  0  0  0  0  0  0  0  0  0  0
  -18.7030   19.1240  -10.9300 H   0  0  0  0  0  0  0  0  0  0  0  0
  -18.5220   17.8880  -13.8920 H   0  0  0  0  0  0  0  0  0  0  0  0
  -17.6990   19.1830  -13.5680 H   0  0  0  0  0  0  0  0  0  0  0  0
  3  1  1  0
  4  3  1  0
  5  4  1  0
  6  4  1  0
  7  6  1  0
  8  7  1  0
  8  1  1  0
  9  8  1  0
 10  9  1  0
 11 10  1  0
 12  7  1  0
 12 11  1  0
 13 10  1  0
 13  2  1  6
 14 13  1  0
 15 14  1  0
 16 15  1  0
 17  5  1  0
 18  1  1  0
 19  3  1  0
 20  6  1  0
 21  9  1  0
 22 11  1  0
 23 12  1  0
 14 24  1  6
 16 25  1  1
 17 26  1  6
 27 17  1  0
 28 17  1  0
 29 14  1  0
 30 16  1  0
 31 16  1  0
M  END
